Version 4
SHEET 1 2132 1028
WIRE -1584 32 -1712 32
WIRE -1472 32 -1504 32
WIRE -1232 32 -1472 32
WIRE -1072 32 -1136 32
WIRE -1040 32 -1072 32
WIRE -928 32 -960 32
WIRE -816 32 -848 32
WIRE -768 32 -816 32
WIRE -640 32 -704 32
WIRE -496 32 -560 32
WIRE -448 32 -496 32
WIRE -320 32 -368 32
WIRE -256 32 -320 32
WIRE -128 32 -176 32
WIRE -64 32 -128 32
WIRE 64 32 16 32
WIRE 128 32 64 32
WIRE 256 32 208 32
WIRE 320 32 256 32
WIRE 448 32 400 32
WIRE 512 32 448 32
WIRE 640 32 592 32
WIRE 800 32 640 32
WIRE 864 32 800 32
WIRE 992 32 944 32
WIRE 1040 32 992 32
WIRE 800 64 800 32
WIRE 992 80 992 32
WIRE -1712 96 -1712 32
WIRE -1472 96 -1472 32
WIRE -1472 96 -1520 96
WIRE -496 96 -496 32
WIRE -320 96 -320 32
WIRE -128 96 -128 32
WIRE 64 96 64 32
WIRE 256 96 256 32
WIRE 448 96 448 32
WIRE 640 96 640 32
WIRE -1072 128 -1072 32
WIRE -1520 160 -1520 96
WIRE -1472 192 -1472 96
WIRE -1424 192 -1472 192
WIRE -1296 192 -1344 192
WIRE -1184 192 -1184 96
WIRE -1184 192 -1216 192
WIRE -1120 192 -1184 192
WIRE -816 192 -816 32
WIRE -816 192 -1024 192
WIRE 800 192 800 144
WIRE -1712 224 -1712 176
WIRE -1520 224 -1712 224
WIRE -1712 240 -1712 224
WIRE -816 256 -816 192
WIRE -1088 304 -1200 304
WIRE -496 304 -496 160
WIRE -320 304 -320 160
WIRE -320 304 -496 304
WIRE -128 304 -128 160
WIRE -128 304 -320 304
WIRE 64 304 64 160
WIRE 64 304 -128 304
WIRE 256 304 256 160
WIRE 256 304 64 304
WIRE 448 304 448 160
WIRE 448 304 256 304
WIRE 640 304 640 160
WIRE 640 304 448 304
WIRE 800 304 800 272
WIRE 800 304 640 304
WIRE 992 304 992 144
WIRE 992 304 800 304
WIRE -1200 336 -1200 304
WIRE -1088 368 -1088 304
WIRE 992 368 992 304
WIRE -816 400 -816 336
WIRE -1200 464 -1200 416
WIRE -1424 512 -1568 512
WIRE -1088 512 -1088 448
WIRE -1088 512 -1232 512
WIRE -976 512 -1088 512
WIRE -816 528 -816 480
WIRE -816 528 -912 528
WIRE -976 544 -1040 544
WIRE -1568 560 -1568 512
WIRE -1424 608 -1472 608
WIRE -1184 608 -1232 608
WIRE -1040 608 -1040 544
WIRE -1040 608 -1184 608
WIRE -1568 672 -1568 640
WIRE -1472 672 -1472 608
WIRE -1472 672 -1568 672
WIRE -1184 704 -1184 608
FLAG 1040 32 PZ_Out
IOPIN 1040 32 Out
FLAG 992 368 0
FLAG -1200 464 0
FLAG -1712 240 0
FLAG -1184 704 0
SYMBOL res -656 48 R270
WINDOW 0 32 56 VTop 2
WINDOW 3 0 56 VBottom 2
SYMATTR InstName R4
SYMATTR Value 2.2k
SYMBOL res -1312 208 R270
WINDOW 0 32 56 VTop 2
WINDOW 3 0 56 VBottom 2
SYMATTR InstName R2
SYMATTR Value 510k
SYMATTR SpiceLine tol=0.1 pwr=0.1
SYMBOL res -1056 48 R270
WINDOW 0 32 56 VTop 2
WINDOW 3 0 56 VBottom 2
SYMATTR InstName R3
SYMATTR Value 680
SYMBOL res -1600 48 R270
WINDOW 0 32 56 VTop 2
WINDOW 3 0 56 VBottom 2
SYMATTR InstName R1
SYMATTR Value 4.75k
SYMBOL diode -768 48 R270
WINDOW 0 32 32 VTop 2
WINDOW 3 0 32 VBottom 2
SYMATTR InstName D3
SYMBOL res -464 48 R270
WINDOW 0 32 56 VTop 2
WINDOW 3 0 56 VBottom 2
SYMATTR InstName R5
SYMATTR Value 2.2k
SYMBOL cap -512 96 R0
SYMATTR InstName C1
SYMATTR Value 68nf
SYMATTR SpiceLine V=200 Irms=1.2 Rser=0.0758696 Lser=0
SYMBOL res -272 48 R270
WINDOW 0 32 56 VTop 2
WINDOW 3 0 56 VBottom 2
SYMATTR InstName R6
SYMATTR Value 2.2k
SYMBOL cap -336 96 R0
SYMATTR InstName C2
SYMATTR Value 68nf
SYMATTR SpiceLine V=200 Irms=1.2 Rser=0.0758696 Lser=0
SYMBOL res -80 48 R270
WINDOW 0 32 56 VTop 2
WINDOW 3 0 56 VBottom 2
SYMATTR InstName R7
SYMATTR Value 2.2k
SYMBOL cap -144 96 R0
SYMATTR InstName C3
SYMATTR Value 68nf
SYMATTR SpiceLine V=200 Irms=1.2 Rser=0.0758696 Lser=0
SYMBOL res 112 48 R270
WINDOW 0 32 56 VTop 2
WINDOW 3 0 56 VBottom 2
SYMATTR InstName R8
SYMATTR Value 2.2k
SYMBOL cap 48 96 R0
SYMATTR InstName C4
SYMATTR Value 68nf
SYMATTR SpiceLine V=200 Irms=1.2 Rser=0.0758696 Lser=0
SYMBOL res 304 48 R270
WINDOW 0 32 56 VTop 2
WINDOW 3 0 56 VBottom 2
SYMATTR InstName R9
SYMATTR Value 2.2k
SYMBOL cap 240 96 R0
SYMATTR InstName C5
SYMATTR Value 68nf
SYMATTR SpiceLine V=200 Irms=1.2 Rser=0.0758696 Lser=0
SYMBOL res 496 48 R270
WINDOW 0 32 56 VTop 2
WINDOW 3 0 56 VBottom 2
SYMATTR InstName R10
SYMATTR Value 2.2k
SYMBOL cap 432 96 R0
SYMATTR InstName C6
SYMATTR Value 68nf
SYMATTR SpiceLine V=200 Irms=1.2 Rser=0.0758696 Lser=0
SYMBOL polcap 976 80 R0
WINDOW 3 46 60 Left 2
WINDOW 0 53 32 Left 2
SYMATTR Value 0.315µ
SYMATTR InstName Pizo
SYMATTR Description Capacitor
SYMATTR Type cap
SYMATTR SpiceLine V=150 Irms=0 Rser=0.15 Lser=0
SYMBOL res 848 48 R270
WINDOW 0 32 56 VTop 2
WINDOW 3 0 56 VBottom 2
SYMATTR InstName R11
SYMATTR Value 20K
SYMBOL res 784 48 R0
WINDOW 0 54 38 Left 2
WINDOW 3 48 74 Left 2
SYMATTR InstName R12
SYMATTR Value 100k
SYMATTR SpiceLine tol=0.1 pwr=0.2
SYMBOL npn -1120 128 M90
WINDOW 0 90 60 VLeft 2
WINDOW 3 128 90 VLeft 2
SYMATTR InstName Q2
SYMATTR Value MSPA42
SYMBOL npn -1232 96 R270
WINDOW 0 79 58 VLeft 2
WINDOW 3 116 88 VLeft 2
SYMATTR InstName Q1
SYMATTR Value MSPA42
SYMBOL voltage -1568 544 R0
WINDOW 3 900 5 Left 2
WINDOW 123 0 0 Left 2
WINDOW 39 64 -60 Right 2
WINDOW 0 34 -99 Right 2
SYMATTR Value PULSE(0 5 0.02 70E-9 70E-9 0.000375 0.000750 1600)
SYMATTR SpiceLine Rser=210
SYMATTR InstName V2
SYMBOL res -1104 352 R0
WINDOW 0 58 37 Left 2
WINDOW 3 54 73 Left 2
SYMATTR InstName R14
SYMATTR Value 383
SYMBOL voltage -1200 320 R0
WINDOW 123 0 0 Left 2
WINDOW 39 -145 59 Left 2
WINDOW 3 -107 23 Left 2
SYMATTR SpiceLine Rser=10
SYMATTR Value 5
SYMATTR InstName V3
SYMBOL Custom_Opto -1328 560 R0
SYMATTR InstName U1
SYMBOL res -832 384 R0
WINDOW 0 58 37 Left 2
WINDOW 3 54 73 Left 2
SYMATTR InstName R15
SYMATTR Value 750
SYMBOL voltage -1712 80 R0
WINDOW 123 0 0 Left 0
WINDOW 39 0 0 Left 0
SYMATTR InstName V1
SYMATTR Value 200
SYMBOL cap -1536 160 R0
SYMATTR InstName C7
SYMATTR Value 2.2µf
SYMATTR SpiceLine V=200 Irms=1.2 Rser=0.0758696 Lser=0
SYMBOL cap 624 96 R0
SYMATTR InstName C8
SYMATTR Value 68nf
SYMATTR SpiceLine V=200 Irms=1.2 Rser=0.0758696 Lser=0
SYMBOL AutoGenerated\\ZVN4525G -944 528 M0
WINDOW 3 -2 46 Top 2
SYMATTR InstName U2
SYMBOL res 784 176 R0
WINDOW 0 54 38 Left 2
WINDOW 3 48 74 Left 2
SYMATTR InstName R13
SYMATTR Value 100k
SYMATTR SpiceLine tol=0.1 pwr=0.2
SYMBOL res -832 240 R0
WINDOW 0 58 37 Left 2
WINDOW 3 54 73 Left 2
SYMATTR InstName R16
SYMATTR Value 750
SYMBOL res -1440 208 R270
WINDOW 0 32 56 VTop 2
WINDOW 3 0 56 VBottom 2
SYMATTR InstName R17
SYMATTR Value 510k
SYMATTR SpiceLine tol=0.1 pwr=0.1
SYMBOL res -944 48 R270
WINDOW 0 32 56 VTop 2
WINDOW 3 0 56 VBottom 2
SYMATTR InstName R18
SYMATTR Value 20
TEXT -512 592 Left 2 !.tran 0 2.5 0 0.00001
TEXT -496 376 Left 2 ;MSPA42 requires modification \nto standard.bjt file to add into \ndatabase.
TEXT -1056 328 Left 2 ;5V Opto Pull Up
TEXT 840 432 Left 2 ;0.2 mV Ripple on Piezo @ 88V out\n680 nA Ripple through Piezo
TEXT 32 384 Left 2 ;Settling Time to 90%  =  348 ms\n                         99%  =  672 ms\n                         99.92* @ 1 Second
TEXT -960 -32 Left 2 ;50R Trimmer
TEXT -1616 408 Left 2 ;1.5 kHz PWM drive
TEXT 264 -80 Left 2 ;Predicted 14mV ripple here Measured 22mV PP sin wave\nbefore 20k current limiter
TEXT -1616 -80 Left 2 ;15mV triangular ripple\n at 60 V in trial circuit
TEXT -1712 288 Left 2 ;~0.12V out change for 1V\nvariation on 200V line
